New line. Added from terminal
New line. Added from github
Line 2.
